<additional>
  <inductionLoop id="loop43_0" lane="4to3_0" pos="150" freq="300"
  file="out.txt" friendlyPos="true"/>

  <inductionLoop id="loop43_1" lane="4to3_1" pos="150" freq="300"
  file="out.txt" friendlyPos="true"/>

  <inductionLoop id="loop13_0" lane="1to3_0" pos="150" freq="300"
  file="out.txt" friendlyPos="true"/>

  <inductionLoop id="loop13_1" lane="1to3_1" pos="150" freq="300"
  file="out.txt" friendlyPos="true"/>

  <inductionLoop id="loop23_0" lane="2to3_0" pos="150" freq="300"
  file="out.txt" friendlyPos="true"/>

  <inductionLoop id="loop23_1" lane="2to3_1" pos="150" freq="300"
  file="out.txt" friendlyPos="true"/>

  <inductionLoop id="loop53_0" lane="5to3_0" pos="150" freq="300"
  file="out.txt" friendlyPos="true"/>

  <inductionLoop id="loop53_1" lane="5to3_1" pos="150" freq="300"
  file="out.txt" friendlyPos="true"/>

  <inductionLoop id="loop35_0" lane="3to5_0" pos="5" freq="300"
  file="out.txt" friendlyPos="true"/>

  <inductionLoop id="loop35_1" lane="3to5_1" pos="5" freq="300"
  file="out.txt" friendlyPos="true"/>

  <inductionLoop id="loop32_0" lane="3to2_0" pos="5" freq="300"
  file="out.txt" friendlyPos="true"/>

  <inductionLoop id="loop32_1" lane="3to2_1" pos="5" freq="300"
  file="out.txt" friendlyPos="true"/>

  <inductionLoop id="loop31_0" lane="3to1_0" pos="5" freq="300"
  file="out.txt" friendlyPos="true"/>

  <inductionLoop id="loop31_1" lane="3to1_1" pos="5" freq="300"
  file="out.txt" friendlyPos="true"/>

  <inductionLoop id="loop34_0" lane="3to4_0" pos="5" freq="300"
  file="out.txt" friendlyPos="true"/>

  <inductionLoop id="loop34_1" lane="3to4_1" pos="5" freq="300"
  file="out.txt" friendlyPos="true"/>




 <tlLogic id="n3" programID="Vpass" offset="0" type="static">

        <phase   duration="5"  state="rrrrryyyyyrrrrryyyyy"/>
        <phase   duration="10"  state="gggggrrrrrgggggrrrrr"/>
   </tlLogic>
 <tlLogic id="n3" programID="Hpass" offset="0" type="static">

        <phase   duration="5"  state="yyyyyrrrrryyyyyrrrrr"/>
        <phase   duration="10"  state="rrrrrgggggrrrrrggggg"/>
   </tlLogic>

 <tlLogic id="n3" programID="VpassY" offset="0" type="static">

        <phase  duration="5"  state="rrrrrYYYYYrrrrrYYYYY"/>
   </tlLogic>

 <tlLogic id="n3" programID="VpassG" offset="0" type="static">
        <phase  duration="5"  state="gggggrrrrrgggggrrrrr"/>
   </tlLogic>

 <tlLogic id="n3" programID="HpassY" offset="0" type="static">

        <phase   duration="5"  state="YYYYYrrrrrYYYYYrrrrr"/>
   </tlLogic>

 <tlLogic id="n3" programID="HpassG" offset="0" type="static">
        <phase   duration="5"  state="rrrrrgggggrrrrrggggg"/>
   </tlLogic>
 <tlLogic id="n3" programID="RED" offset="0" type="static">

        <phase   duration="5"  state="rrrrrrrrrrrrrrrrrrrr"/>
   </tlLogic>

</additional>
