<additional>
<edgeData id="1to3" file="testing.net.xml"/>
</additional>