<configuration>

<input>
<net-file value="net2.net.xml"/>
<route-files value="my_route.rou.xml"/>
<additional-files value="addFile.add.xml"/> 
</input>
<step-length value=".1"/>
<time>
<begin value="0"/>
<end value="50000"/>
</time>
</configuration>
