<edges>
<edge from="n1" to="n3" id="1to3" type="2L30"/>
<edge from="n3" to="n2" id="3to2" type="2L30"/>
<edge from="n4" to="n3" id="4to3" type="2L30"/>
<edge from="n3" to="n5" id="3to5" type="2L30"/>

<edge from="n3" to="n1" id="3to1" type="2L30"/>
<edge from="n2" to="n3" id="2to3" type="2L30"/>
<edge from="n3" to="n4" id="3to4" type="2L30"/>
<edge from="n5" to="n3" id="5to3" type="2L30"/>
</edges>