<?xml version="1.0" encoding="UTF-8"?>

<!-- generated on 01/24/19 08:35:46 by Eclipse SUMO netconvert Version 1.1.0
<configuration xmlns:xsi="http://www.w3.org/2001/XMLSchema-instance" xsi:noNamespaceSchemaLocation="http://sumo.dlr.de/xsd/netconvertConfiguration.xsd">

    <input>
        <node-files value="my_node.nod.xml"/>
        <edge-files value="my_edge.edg.xml"/>
        <type-files value="my_type.type.xml"/>
    </input>

    <output>
        <output-file value="my_net.net.xml"/>
    </output>

</configuration>
-->

<net version="1.1" junctionCornerDetail="5" limitTurnSpeed="5.50" xmlns:xsi="http://www.w3.org/2001/XMLSchema-instance" xsi:noNamespaceSchemaLocation="http://sumo.dlr.de/xsd/net_file.xsd">

    <location netOffset="50.00,50.00" convBoundary="0.00,0.00,100.00,100.00" origBoundary="-50.00,-50.00,50.00,50.00" projParameter="!"/>

    <type id="2L30" priority="2" numLanes="2" speed="30.00"/>

    <edge id=":n3_0" function="internal">
        <lane id=":n3_0_0" index="0" speed="30.00" length="14.40" shape="45.20,54.00 45.20,39.60"/>
        <lane id=":n3_0_1" index="1" speed="30.00" length="14.40" shape="48.40,54.00 48.40,39.60"/>
    </edge>
    <edge id=":n3_2" function="internal">
        <lane id=":n3_2_0" index="0" speed="6.51" length="9.03" shape="48.40,54.00 48.75,51.55 49.80,49.80 51.55,48.75 54.00,48.40"/>
    </edge>
    <edge id=":n3_3" function="internal">
        <lane id=":n3_3_0" index="0" speed="6.51" length="9.03" shape="39.60,45.20 42.05,44.85 43.80,43.80 44.85,42.05 45.20,39.60"/>
    </edge>
    <edge id=":n3_4" function="internal">
        <lane id=":n3_4_0" index="0" speed="30.00" length="14.40" shape="39.60,45.20 54.00,45.20"/>
        <lane id=":n3_4_1" index="1" speed="30.00" length="14.40" shape="39.60,48.40 54.00,48.40"/>
    </edge>

    <edge id="1to3" from="n1" to="n3" priority="2" type="2L30">
        <lane id="1to3_0" index="0" speed="30.00" length="39.60" shape="0.00,45.20 39.60,45.20"/>
        <lane id="1to3_1" index="1" speed="30.00" length="39.60" shape="0.00,48.40 39.60,48.40"/>
    </edge>
    <edge id="3to2" from="n3" to="n2" priority="2" type="2L30">
        <lane id="3to2_0" index="0" speed="30.00" length="46.00" shape="54.00,45.20 100.00,45.20"/>
        <lane id="3to2_1" index="1" speed="30.00" length="46.00" shape="54.00,48.40 100.00,48.40"/>
    </edge>
    <edge id="3to5" from="n3" to="n5" priority="2" type="2L30">
        <lane id="3to5_0" index="0" speed="30.00" length="39.60" shape="45.20,39.60 45.20,0.00"/>
        <lane id="3to5_1" index="1" speed="30.00" length="39.60" shape="48.40,39.60 48.40,0.00"/>
    </edge>
    <edge id="4to3" from="n4" to="n3" priority="2" type="2L30">
        <lane id="4to3_0" index="0" speed="30.00" length="46.00" shape="45.20,100.00 45.20,54.00"/>
        <lane id="4to3_1" index="1" speed="30.00" length="46.00" shape="48.40,100.00 48.40,54.00"/>
    </edge>

    <tlLogic id="n3" type="static" programID="0" offset="0">
        <phase duration="39" state="GGGrrr"/>
        <phase duration="6"  state="yyyrrr"/>
        <phase duration="39" state="rrrGGG"/>
        <phase duration="6"  state="rrryyy"/>
    </tlLogic>

    <junction id="n1" type="dead_end" x="0.00" y="50.00" incLanes="" intLanes="" shape="0.00,50.00 0.00,43.60"/>
    <junction id="n2" type="dead_end" x="100.00" y="50.00" incLanes="3to2_0 3to2_1" intLanes="" shape="100.00,43.60 100.00,50.00"/>
    <junction id="n3" type="traffic_light" x="50.00" y="50.00" incLanes="4to3_0 4to3_1 1to3_0 1to3_1" intLanes=":n3_0_0 :n3_0_1 :n3_2_0 :n3_3_0 :n3_4_0 :n3_4_1" shape="43.60,54.00 50.00,54.00 50.44,51.78 51.00,51.00 51.78,50.44 52.78,50.11 54.00,50.00 54.00,43.60 51.78,43.16 51.00,42.60 50.44,41.82 50.11,40.82 50.00,39.60 43.60,39.60 43.16,41.82 42.60,42.60 41.82,43.16 40.82,43.49 39.60,43.60 39.60,50.00 41.82,50.44 42.60,51.00 43.16,51.78 43.49,52.78">
        <request index="0" response="111000" foes="111000" cont="0"/>
        <request index="1" response="111000" foes="111000" cont="0"/>
        <request index="2" response="110000" foes="110000" cont="0"/>
        <request index="3" response="000000" foes="000011" cont="0"/>
        <request index="4" response="000000" foes="000111" cont="0"/>
        <request index="5" response="000000" foes="000111" cont="0"/>
    </junction>
    <junction id="n4" type="dead_end" x="50.00" y="100.00" incLanes="" intLanes="" shape="50.00,100.00 43.60,100.00"/>
    <junction id="n5" type="dead_end" x="50.00" y="0.00" incLanes="3to5_0 3to5_1" intLanes="" shape="43.60,0.00 50.00,0.00"/>

    <connection from="1to3" to="3to5" fromLane="0" toLane="0" via=":n3_3_0" tl="n3" linkIndex="3" dir="r" state="O"/>
    <connection from="1to3" to="3to2" fromLane="0" toLane="0" via=":n3_4_0" tl="n3" linkIndex="4" dir="s" state="O"/>
    <connection from="1to3" to="3to2" fromLane="1" toLane="1" via=":n3_4_1" tl="n3" linkIndex="5" dir="s" state="O"/>
    <connection from="4to3" to="3to5" fromLane="0" toLane="0" via=":n3_0_0" tl="n3" linkIndex="0" dir="s" state="o"/>
    <connection from="4to3" to="3to5" fromLane="1" toLane="1" via=":n3_0_1" tl="n3" linkIndex="1" dir="s" state="o"/>
    <connection from="4to3" to="3to2" fromLane="1" toLane="1" via=":n3_2_0" tl="n3" linkIndex="2" dir="l" state="o"/>

    <connection from=":n3_0" to="3to5" fromLane="0" toLane="0" dir="s" state="M"/>
    <connection from=":n3_0" to="3to5" fromLane="1" toLane="1" dir="s" state="M"/>
    <connection from=":n3_2" to="3to2" fromLane="0" toLane="1" dir="l" state="M"/>
    <connection from=":n3_3" to="3to5" fromLane="0" toLane="0" dir="r" state="M"/>
    <connection from=":n3_4" to="3to2" fromLane="0" toLane="0" dir="s" state="M"/>
    <connection from=":n3_4" to="3to2" fromLane="1" toLane="1" dir="s" state="M"/>

</net>
