<routes>
<vType accel = "6.0" decel = "9.0" id = "car" length = "2.0" maxspeed = "100.0" sigma = "0.0" />
<route id="route0" edges="1to3 3to2" />
<route id="route1" edges="4to3 3to5" />
<route id="route2" edges="2to3 3to1" />
<route id="route3" edges="5to3 3to4" />
<route id="route4" edges="1to3 3to4" />
<route id="route5" edges="4to3 3to2" />
<route id="route6" edges="2to3 3to5" />
<route id="route7" edges="5to3 3to1" />
<vehicle depart="2.000000" id="veh0" route="route2" type="car" />
<vehicle depart="2.000000" id="veh1" route="route0" type="car" />
<vehicle depart="4.000000" id="veh2" route="route1" type="car" />
<vehicle depart="4.000000" id="veh3" route="route2" type="car" />
<vehicle depart="4.000000" id="veh4" route="route0" type="car" />
<vehicle depart="6.000000" id="veh5" route="route3" type="car" />
<vehicle depart="6.000000" id="veh6" route="route2" type="car" />
<vehicle depart="6.000000" id="veh7" route="route0" type="car" />
<vehicle depart="8.000000" id="veh8" route="route1" type="car" />
<vehicle depart="8.000000" id="veh9" route="route2" type="car" />
<vehicle depart="10.000000" id="veh10" route="route3" type="car" />
<vehicle depart="10.000000" id="veh11" route="route2" type="car" />
<vehicle depart="10.000000" id="veh12" route="route0" type="car" />
<vehicle depart="12.000000" id="veh13" route="route2" type="car" />
<vehicle depart="12.000000" id="veh14" route="route0" type="car" />
<vehicle depart="14.000000" id="veh15" route="route1" type="car" />
<vehicle depart="14.000000" id="veh16" route="route2" type="car" />
<vehicle depart="14.000000" id="veh17" route="route0" type="car" />
<vehicle depart="16.000000" id="veh18" route="route1" type="car" />
<vehicle depart="16.000000" id="veh19" route="route3" type="car" />
<vehicle depart="16.000000" id="veh20" route="route2" type="car" />
<vehicle depart="16.000000" id="veh21" route="route0" type="car" />
<vehicle depart="18.000000" id="veh22" route="route1" type="car" />
<vehicle depart="18.000000" id="veh23" route="route3" type="car" />
<vehicle depart="18.000000" id="veh24" route="route2" type="car" />
<vehicle depart="18.000000" id="veh25" route="route0" type="car" />
<vehicle depart="20.000000" id="veh26" route="route1" type="car" />
<vehicle depart="20.000000" id="veh27" route="route3" type="car" />
<vehicle depart="20.000000" id="veh28" route="route2" type="car" />
<vehicle depart="20.000000" id="veh29" route="route0" type="car" />
<vehicle depart="22.000000" id="veh30" route="route2" type="car" />
<vehicle depart="22.000000" id="veh31" route="route0" type="car" />
<vehicle depart="24.000000" id="veh32" route="route1" type="car" />
<vehicle depart="24.000000" id="veh33" route="route3" type="car" />
<vehicle depart="24.000000" id="veh34" route="route2" type="car" />
<vehicle depart="24.000000" id="veh35" route="route0" type="car" />
<vehicle depart="26.000000" id="veh36" route="route1" type="car" />
<vehicle depart="26.000000" id="veh37" route="route3" type="car" />
<vehicle depart="26.000000" id="veh38" route="route2" type="car" />
<vehicle depart="26.000000" id="veh39" route="route0" type="car" />
<vehicle depart="28.000000" id="veh40" route="route3" type="car" />
<vehicle depart="28.000000" id="veh41" route="route2" type="car" />
<vehicle depart="28.000000" id="veh42" route="route0" type="car" />
<vehicle depart="30.000000" id="veh43" route="route1" type="car" />
<vehicle depart="30.000000" id="veh44" route="route3" type="car" />
<vehicle depart="30.000000" id="veh45" route="route2" type="car" />
<vehicle depart="30.000000" id="veh46" route="route0" type="car" />
<vehicle depart="32.000000" id="veh47" route="route3" type="car" />
<vehicle depart="32.000000" id="veh48" route="route2" type="car" />
<vehicle depart="32.000000" id="veh49" route="route0" type="car" />
<vehicle depart="34.000000" id="veh50" route="route1" type="car" />
<vehicle depart="34.000000" id="veh51" route="route2" type="car" />
<vehicle depart="34.000000" id="veh52" route="route0" type="car" />
<vehicle depart="36.000000" id="veh53" route="route2" type="car" />
<vehicle depart="36.000000" id="veh54" route="route0" type="car" />
<vehicle depart="38.000000" id="veh55" route="route2" type="car" />
<vehicle depart="38.000000" id="veh56" route="route0" type="car" />
<vehicle depart="40.000000" id="veh57" route="route3" type="car" />
<vehicle depart="40.000000" id="veh58" route="route2" type="car" />
<vehicle depart="40.000000" id="veh59" route="route0" type="car" />
<vehicle depart="42.000000" id="veh60" route="route2" type="car" />
<vehicle depart="42.000000" id="veh61" route="route0" type="car" />
<vehicle depart="44.000000" id="veh62" route="route1" type="car" />
<vehicle depart="44.000000" id="veh63" route="route3" type="car" />
<vehicle depart="44.000000" id="veh64" route="route2" type="car" />
<vehicle depart="44.000000" id="veh65" route="route0" type="car" />
<vehicle depart="46.000000" id="veh66" route="route3" type="car" />
<vehicle depart="46.000000" id="veh67" route="route2" type="car" />
<vehicle depart="46.000000" id="veh68" route="route0" type="car" />
<vehicle depart="48.000000" id="veh69" route="route2" type="car" />
<vehicle depart="48.000000" id="veh70" route="route0" type="car" />
<vehicle depart="50.000000" id="veh71" route="route2" type="car" />
<vehicle depart="50.000000" id="veh72" route="route0" type="car" />
<vehicle depart="52.000000" id="veh73" route="route2" type="car" />
<vehicle depart="52.000000" id="veh74" route="route0" type="car" />
<vehicle depart="54.000000" id="veh75" route="route1" type="car" />
<vehicle depart="54.000000" id="veh76" route="route3" type="car" />
<vehicle depart="54.000000" id="veh77" route="route2" type="car" />
<vehicle depart="54.000000" id="veh78" route="route0" type="car" />
<vehicle depart="56.000000" id="veh79" route="route1" type="car" />
<vehicle depart="56.000000" id="veh80" route="route2" type="car" />
<vehicle depart="56.000000" id="veh81" route="route0" type="car" />
<vehicle depart="58.000000" id="veh82" route="route1" type="car" />
<vehicle depart="58.000000" id="veh83" route="route2" type="car" />
<vehicle depart="58.000000" id="veh84" route="route0" type="car" />
<vehicle depart="60.000000" id="veh85" route="route1" type="car" />
<vehicle depart="60.000000" id="veh86" route="route3" type="car" />
<vehicle depart="60.000000" id="veh87" route="route2" type="car" />
<vehicle depart="60.000000" id="veh88" route="route0" type="car" />
<vehicle depart="62.000000" id="veh89" route="route3" type="car" />
<vehicle depart="62.000000" id="veh90" route="route2" type="car" />
<vehicle depart="62.000000" id="veh91" route="route0" type="car" />
<vehicle depart="64.000000" id="veh92" route="route1" type="car" />
<vehicle depart="64.000000" id="veh93" route="route2" type="car" />
<vehicle depart="64.000000" id="veh94" route="route0" type="car" />
<vehicle depart="66.000000" id="veh95" route="route1" type="car" />
<vehicle depart="66.000000" id="veh96" route="route2" type="car" />
<vehicle depart="66.000000" id="veh97" route="route0" type="car" />
<vehicle depart="68.000000" id="veh98" route="route1" type="car" />
<vehicle depart="68.000000" id="veh99" route="route3" type="car" />
<vehicle depart="68.000000" id="veh100" route="route2" type="car" />
<vehicle depart="68.000000" id="veh101" route="route0" type="car" />
<vehicle depart="70.000000" id="veh102" route="route2" type="car" />
<vehicle depart="70.000000" id="veh103" route="route0" type="car" />
<vehicle depart="72.000000" id="veh104" route="route1" type="car" />
<vehicle depart="72.000000" id="veh105" route="route2" type="car" />
<vehicle depart="74.000000" id="veh106" route="route2" type="car" />
<vehicle depart="74.000000" id="veh107" route="route0" type="car" />
<vehicle depart="76.000000" id="veh108" route="route1" type="car" />
<vehicle depart="76.000000" id="veh109" route="route3" type="car" />
<vehicle depart="76.000000" id="veh110" route="route2" type="car" />
<vehicle depart="76.000000" id="veh111" route="route0" type="car" />
<vehicle depart="78.000000" id="veh112" route="route3" type="car" />
<vehicle depart="78.000000" id="veh113" route="route2" type="car" />
<vehicle depart="78.000000" id="veh114" route="route0" type="car" />
<vehicle depart="80.000000" id="veh115" route="route3" type="car" />
<vehicle depart="80.000000" id="veh116" route="route2" type="car" />
<vehicle depart="80.000000" id="veh117" route="route0" type="car" />
<vehicle depart="82.000000" id="veh118" route="route3" type="car" />
<vehicle depart="82.000000" id="veh119" route="route2" type="car" />
<vehicle depart="82.000000" id="veh120" route="route0" type="car" />
<vehicle depart="84.000000" id="veh121" route="route1" type="car" />
<vehicle depart="84.000000" id="veh122" route="route3" type="car" />
<vehicle depart="84.000000" id="veh123" route="route2" type="car" />
<vehicle depart="84.000000" id="veh124" route="route0" type="car" />
<vehicle depart="86.000000" id="veh125" route="route2" type="car" />
<vehicle depart="86.000000" id="veh126" route="route0" type="car" />
<vehicle depart="88.000000" id="veh127" route="route1" type="car" />
<vehicle depart="88.000000" id="veh128" route="route2" type="car" />
<vehicle depart="88.000000" id="veh129" route="route0" type="car" />
<vehicle depart="90.000000" id="veh130" route="route2" type="car" />
<vehicle depart="90.000000" id="veh131" route="route0" type="car" />
<vehicle depart="92.000000" id="veh132" route="route1" type="car" />
<vehicle depart="92.000000" id="veh133" route="route2" type="car" />
<vehicle depart="92.000000" id="veh134" route="route0" type="car" />
<vehicle depart="94.000000" id="veh135" route="route3" type="car" />
<vehicle depart="94.000000" id="veh136" route="route2" type="car" />
<vehicle depart="94.000000" id="veh137" route="route0" type="car" />
<vehicle depart="96.000000" id="veh138" route="route1" type="car" />
<vehicle depart="96.000000" id="veh139" route="route2" type="car" />
<vehicle depart="96.000000" id="veh140" route="route0" type="car" />
<vehicle depart="98.000000" id="veh141" route="route2" type="car" />
<vehicle depart="98.000000" id="veh142" route="route0" type="car" />
<vehicle depart="100.000000" id="veh143" route="route1" type="car" />
<vehicle depart="100.000000" id="veh144" route="route3" type="car" />
<vehicle depart="100.000000" id="veh145" route="route2" type="car" />
<vehicle depart="100.000000" id="veh146" route="route0" type="car" />
<vehicle depart="102.000000" id="veh147" route="route1" type="car" />
<vehicle depart="102.000000" id="veh148" route="route2" type="car" />
<vehicle depart="102.000000" id="veh149" route="route0" type="car" />
<vehicle depart="104.000000" id="veh150" route="route1" type="car" />
<vehicle depart="104.000000" id="veh151" route="route2" type="car" />
<vehicle depart="104.000000" id="veh152" route="route0" type="car" />
<vehicle depart="106.000000" id="veh153" route="route1" type="car" />
<vehicle depart="106.000000" id="veh154" route="route2" type="car" />
<vehicle depart="106.000000" id="veh155" route="route0" type="car" />
<vehicle depart="108.000000" id="veh156" route="route3" type="car" />
<vehicle depart="108.000000" id="veh157" route="route2" type="car" />
<vehicle depart="108.000000" id="veh158" route="route0" type="car" />
<vehicle depart="110.000000" id="veh159" route="route1" type="car" />
<vehicle depart="110.000000" id="veh160" route="route3" type="car" />
<vehicle depart="110.000000" id="veh161" route="route2" type="car" />
<vehicle depart="110.000000" id="veh162" route="route0" type="car" />
<vehicle depart="112.000000" id="veh163" route="route3" type="car" />
<vehicle depart="112.000000" id="veh164" route="route2" type="car" />
<vehicle depart="112.000000" id="veh165" route="route0" type="car" />
<vehicle depart="114.000000" id="veh166" route="route3" type="car" />
<vehicle depart="114.000000" id="veh167" route="route2" type="car" />
<vehicle depart="114.000000" id="veh168" route="route0" type="car" />
<vehicle depart="116.000000" id="veh169" route="route1" type="car" />
<vehicle depart="116.000000" id="veh170" route="route3" type="car" />
<vehicle depart="116.000000" id="veh171" route="route2" type="car" />
<vehicle depart="116.000000" id="veh172" route="route0" type="car" />
<vehicle depart="118.000000" id="veh173" route="route1" type="car" />
<vehicle depart="118.000000" id="veh174" route="route2" type="car" />
<vehicle depart="120.000000" id="veh175" route="route1" type="car" />
<vehicle depart="120.000000" id="veh176" route="route2" type="car" />
<vehicle depart="120.000000" id="veh177" route="route0" type="car" />
<vehicle depart="122.000000" id="veh178" route="route2" type="car" />
<vehicle depart="122.000000" id="veh179" route="route0" type="car" />
<vehicle depart="124.000000" id="veh180" route="route3" type="car" />
<vehicle depart="124.000000" id="veh181" route="route2" type="car" />
<vehicle depart="124.000000" id="veh182" route="route0" type="car" />
<vehicle depart="126.000000" id="veh183" route="route1" type="car" />
<vehicle depart="126.000000" id="veh184" route="route2" type="car" />
<vehicle depart="126.000000" id="veh185" route="route0" type="car" />
<vehicle depart="128.000000" id="veh186" route="route3" type="car" />
<vehicle depart="128.000000" id="veh187" route="route2" type="car" />
<vehicle depart="128.000000" id="veh188" route="route0" type="car" />
<vehicle depart="130.000000" id="veh189" route="route1" type="car" />
<vehicle depart="130.000000" id="veh190" route="route2" type="car" />
<vehicle depart="130.000000" id="veh191" route="route0" type="car" />
<vehicle depart="132.000000" id="veh192" route="route1" type="car" />
<vehicle depart="132.000000" id="veh193" route="route2" type="car" />
<vehicle depart="132.000000" id="veh194" route="route0" type="car" />
<vehicle depart="134.000000" id="veh195" route="route1" type="car" />
<vehicle depart="134.000000" id="veh196" route="route2" type="car" />
<vehicle depart="134.000000" id="veh197" route="route0" type="car" />
<vehicle depart="136.000000" id="veh198" route="route3" type="car" />
<vehicle depart="136.000000" id="veh199" route="route2" type="car" />
<vehicle depart="136.000000" id="veh200" route="route0" type="car" />
<vehicle depart="138.000000" id="veh201" route="route1" type="car" />
<vehicle depart="138.000000" id="veh202" route="route3" type="car" />
<vehicle depart="138.000000" id="veh203" route="route2" type="car" />
<vehicle depart="138.000000" id="veh204" route="route0" type="car" />
<vehicle depart="140.000000" id="veh205" route="route3" type="car" />
<vehicle depart="140.000000" id="veh206" route="route2" type="car" />
<vehicle depart="140.000000" id="veh207" route="route0" type="car" />
<vehicle depart="142.000000" id="veh208" route="route1" type="car" />
<vehicle depart="142.000000" id="veh209" route="route2" type="car" />
<vehicle depart="142.000000" id="veh210" route="route0" type="car" />
<vehicle depart="144.000000" id="veh211" route="route1" type="car" />
<vehicle depart="144.000000" id="veh212" route="route3" type="car" />
<vehicle depart="144.000000" id="veh213" route="route2" type="car" />
<vehicle depart="144.000000" id="veh214" route="route0" type="car" />
<vehicle depart="146.000000" id="veh215" route="route1" type="car" />
<vehicle depart="146.000000" id="veh216" route="route3" type="car" />
<vehicle depart="146.000000" id="veh217" route="route2" type="car" />
<vehicle depart="146.000000" id="veh218" route="route0" type="car" />
<vehicle depart="148.000000" id="veh219" route="route2" type="car" />
<vehicle depart="148.000000" id="veh220" route="route0" type="car" />
<vehicle depart="150.000000" id="veh221" route="route2" type="car" />
<vehicle depart="150.000000" id="veh222" route="route0" type="car" />
<vehicle depart="152.000000" id="veh223" route="route1" type="car" />
<vehicle depart="152.000000" id="veh224" route="route3" type="car" />
<vehicle depart="152.000000" id="veh225" route="route2" type="car" />
<vehicle depart="152.000000" id="veh226" route="route0" type="car" />
<vehicle depart="154.000000" id="veh227" route="route1" type="car" />
<vehicle depart="154.000000" id="veh228" route="route3" type="car" />
<vehicle depart="154.000000" id="veh229" route="route2" type="car" />
<vehicle depart="154.000000" id="veh230" route="route0" type="car" />
<vehicle depart="156.000000" id="veh231" route="route3" type="car" />
<vehicle depart="156.000000" id="veh232" route="route2" type="car" />
<vehicle depart="156.000000" id="veh233" route="route0" type="car" />
<vehicle depart="158.000000" id="veh234" route="route3" type="car" />
<vehicle depart="158.000000" id="veh235" route="route2" type="car" />
<vehicle depart="158.000000" id="veh236" route="route0" type="car" />
<vehicle depart="160.000000" id="veh237" route="route1" type="car" />
<vehicle depart="160.000000" id="veh238" route="route3" type="car" />
<vehicle depart="160.000000" id="veh239" route="route2" type="car" />
<vehicle depart="160.000000" id="veh240" route="route0" type="car" />
<vehicle depart="162.000000" id="veh241" route="route1" type="car" />
<vehicle depart="162.000000" id="veh242" route="route3" type="car" />
<vehicle depart="162.000000" id="veh243" route="route2" type="car" />
<vehicle depart="162.000000" id="veh244" route="route0" type="car" />
<vehicle depart="164.000000" id="veh245" route="route1" type="car" />
<vehicle depart="164.000000" id="veh246" route="route2" type="car" />
<vehicle depart="164.000000" id="veh247" route="route0" type="car" />
<vehicle depart="166.000000" id="veh248" route="route1" type="car" />
<vehicle depart="166.000000" id="veh249" route="route2" type="car" />
<vehicle depart="166.000000" id="veh250" route="route0" type="car" />
<vehicle depart="168.000000" id="veh251" route="route3" type="car" />
<vehicle depart="168.000000" id="veh252" route="route2" type="car" />
<vehicle depart="168.000000" id="veh253" route="route0" type="car" />
<vehicle depart="170.000000" id="veh254" route="route1" type="car" />
<vehicle depart="170.000000" id="veh255" route="route2" type="car" />
<vehicle depart="170.000000" id="veh256" route="route0" type="car" />
<vehicle depart="172.000000" id="veh257" route="route1" type="car" />
<vehicle depart="172.000000" id="veh258" route="route2" type="car" />
<vehicle depart="172.000000" id="veh259" route="route0" type="car" />
<vehicle depart="174.000000" id="veh260" route="route2" type="car" />
<vehicle depart="174.000000" id="veh261" route="route0" type="car" />
<vehicle depart="176.000000" id="veh262" route="route1" type="car" />
<vehicle depart="176.000000" id="veh263" route="route2" type="car" />
<vehicle depart="176.000000" id="veh264" route="route0" type="car" />
<vehicle depart="178.000000" id="veh265" route="route1" type="car" />
<vehicle depart="178.000000" id="veh266" route="route3" type="car" />
<vehicle depart="178.000000" id="veh267" route="route2" type="car" />
<vehicle depart="178.000000" id="veh268" route="route0" type="car" />
<vehicle depart="180.000000" id="veh269" route="route1" type="car" />
<vehicle depart="180.000000" id="veh270" route="route3" type="car" />
<vehicle depart="180.000000" id="veh271" route="route2" type="car" />
<vehicle depart="180.000000" id="veh272" route="route0" type="car" />
<vehicle depart="182.000000" id="veh273" route="route3" type="car" />
<vehicle depart="182.000000" id="veh274" route="route2" type="car" />
<vehicle depart="182.000000" id="veh275" route="route0" type="car" />
<vehicle depart="184.000000" id="veh276" route="route2" type="car" />
<vehicle depart="184.000000" id="veh277" route="route0" type="car" />
<vehicle depart="186.000000" id="veh278" route="route2" type="car" />
<vehicle depart="186.000000" id="veh279" route="route0" type="car" />
<vehicle depart="188.000000" id="veh280" route="route1" type="car" />
<vehicle depart="188.000000" id="veh281" route="route3" type="car" />
<vehicle depart="188.000000" id="veh282" route="route2" type="car" />
<vehicle depart="188.000000" id="veh283" route="route0" type="car" />
<vehicle depart="190.000000" id="veh284" route="route3" type="car" />
<vehicle depart="190.000000" id="veh285" route="route2" type="car" />
<vehicle depart="190.000000" id="veh286" route="route0" type="car" />
<vehicle depart="192.000000" id="veh287" route="route1" type="car" />
<vehicle depart="192.000000" id="veh288" route="route2" type="car" />
<vehicle depart="192.000000" id="veh289" route="route0" type="car" />
<vehicle depart="194.000000" id="veh290" route="route3" type="car" />
<vehicle depart="194.000000" id="veh291" route="route2" type="car" />
<vehicle depart="194.000000" id="veh292" route="route0" type="car" />
<vehicle depart="196.000000" id="veh293" route="route3" type="car" />
<vehicle depart="196.000000" id="veh294" route="route2" type="car" />
<vehicle depart="196.000000" id="veh295" route="route0" type="car" />
<vehicle depart="198.000000" id="veh296" route="route1" type="car" />
<vehicle depart="198.000000" id="veh297" route="route3" type="car" />
<vehicle depart="198.000000" id="veh298" route="route2" type="car" />
<vehicle depart="198.000000" id="veh299" route="route0" type="car" />
<vehicle depart="200.000000" id="veh300" route="route1" type="car" />
<vehicle depart="200.000000" id="veh301" route="route0" type="car" />
</routes>
